/*--------------------------------*- C++ -*----------------------------------*\
  =========                 |
  \      /  F ield         | OpenFOAM: The Open Source CFD Toolbox
   \    /   O peration     | Website: https://openfoam.org
    \  /    A nd           | Version: 12
     \/     M anipulation  |
\*---------------------------------------------------------------------------*/
FoamFile
{
    format      ascii;
    class       dictionary;
    object      functions;
}

#includeFunc residuals

 yPlus
    {
        type            yPlus;
        functionObjectLibs ("libfieldFunctionObjects.so");
        outputControl   timeStep; 
        outputInterval  10;
    }

    sample_near_canyonHVAC-Zona_4-Ar_Condicionado_6
    {
        type            probes;
        functionObjectLibs ("libsampling.so");
        enabled         true;
        writeControl    timeStep;
        writeInterval   10;
        fields ( U T p );
        probeLocations
        (
            (4.288465 3.440393 9.083897)
            (3.955132 3.540393 9.083897)
            (4.641799 3.440393 9.303897)
            (4.641799 3.540393 9.203897)
            (3.955132 3.440393 9.423898)
            (4.288465 3.540393 9.423898)
            (3.601799 3.440393 9.203897)
            (3.601799 3.540393 9.303897)
            (4.288465 3.320393 9.203897)
            (3.955132 3.320393 9.303897)
        );
    }

    sample_near_canyonHVAC-Zona_9-cobertura_4
    {
        type            probes;
        functionObjectLibs ("libsampling.so");
        enabled         true;
        writeControl    timeStep;
        writeInterval   10;
        fields ( U T p );
        probeLocations
        (
            (3.286757 -5.692940 13.020000)
            (4.953423 -4.026274 13.020000)
        );
    }

    sample_near_canyonHVAC-Zona_13-cobertura_7
    {
        type            probes;
        functionObjectLibs ("libsampling.so");
        enabled         true;
        writeControl    timeStep;
        writeInterval   10;
        fields ( U T p );
        probeLocations
        (
            (11.632907 -5.692940 13.020000)
            (16.645723 -4.026274 13.020000)
        );
    }

    sample_near_canyonHVAC-Zona_5-cobertura_4
    {
        type            probes;
        functionObjectLibs ("libsampling.so");
        enabled         true;
        writeControl    timeStep;
        writeInterval   10;
        fields ( U T p );
        probeLocations
        (
            (3.286757 5.307060 13.020000)
            (4.953423 6.973727 13.020000)
        );
    }

    sample_near_canyonHVAC-Zona_13-fachada_1
    {
        type            probes;
        functionObjectLibs ("libsampling.so");
        enabled         true;
        writeControl    timeStep;
        writeInterval   10;
        fields ( U T p );
        probeLocations
        (
            (21.678541 -5.692940 9.000000)
            (21.678541 -4.026274 5.000000)
        );
    }

    sample_near_canyonHVAC-Zona_2-Ar_Condicionado_6
    {
        type            probes;
        functionObjectLibs ("libsampling.so");
        enabled         true;
        writeControl    timeStep;
        writeInterval   10;
        fields ( U T p );
        probeLocations
        (
            (4.282577 3.440393 3.079722)
            (3.949244 3.540393 3.079722)
            (4.635910 3.440393 3.299722)
            (4.635910 3.540393 3.199722)
            (3.949244 3.440393 3.419722)
            (4.282577 3.540393 3.419722)
            (3.595910 3.440393 3.199722)
            (3.595910 3.540393 3.299722)
            (4.282577 3.320393 3.199722)
            (3.949244 3.320393 3.299722)
        );
    }

    sample_near_canyonHVAC-Zona_12-fachada_2
    {
        type            probes;
        functionObjectLibs ("libsampling.so");
        enabled         true;
        writeControl    timeStep;
        writeInterval   10;
        fields ( U T p );
        probeLocations
        (
            (11.620107 8.660394 12.000000)
            (11.620107 8.660394 10.000000)
            (11.620107 8.660394 4.000000)
            (11.620107 8.660394 2.000000)
            (16.620123 8.660394 7.000000)
        );
    }

    sample_near_canyonHVAC-Zona_10-cobertura_7
    {
        type            probes;
        functionObjectLibs ("libsampling.so");
        enabled         true;
        writeControl    timeStep;
        writeInterval   10;
        fields ( U T p );
        probeLocations
        (
            (-8.379876 5.307060 13.020000)
            (-3.379893 6.973727 13.020000)
        );
    }

    sample_near_canyonHVAC-Zona_11-fachada_0
    {
        type            probes;
        functionObjectLibs ("libsampling.so");
        enabled         true;
        writeControl    timeStep;
        writeInterval   10;
        fields ( U T p );
        probeLocations
        (
            (-3.366193 -7.379607 2.000000)
            (-3.366194 -7.379607 4.000000)
            (-3.366194 -7.379607 10.000000)
            (-8.352477 -7.379607 7.000000)
            (-3.366193 -7.379607 12.000000)
        );
    }

    sample_near_canyonHVAC-Zona_13-fachada_0
    {
        type            probes;
        functionObjectLibs ("libsampling.so");
        enabled         true;
        writeControl    timeStep;
        writeInterval   10;
        fields ( U T p );
        probeLocations
        (
            (11.632907 -7.379607 2.000000)
            (11.632907 -7.379607 4.000000)
            (11.632907 -7.379607 10.000000)
            (11.632907 -7.379607 12.000000)
            (16.645723 -7.379607 7.000000)
        );
    }

    sample_near_canyonHVAC-Zona_8-fachada_3
    {
        type            probes;
        functionObjectLibs ("libsampling.so");
        enabled         true;
        writeControl    timeStep;
        writeInterval   10;
        fields ( U T p );
        probeLocations
        (
            (3.286757 -2.339607 9.000000)
            (4.953423 -2.339607 8.000000)
        );
    }

    sample_near_canyonHVAC-Zona_9-fachada_1
    {
        type            probes;
        functionObjectLibs ("libsampling.so");
        enabled         true;
        writeControl    timeStep;
        writeInterval   10;
        fields ( U T p );
        probeLocations
        (
            (3.286757 -7.379607 11.000000)
            (4.953423 -7.379607 12.000000)
        );
    }

    sample_near_canyonHVAC-Zona_6-fachada_1
    {
        type            probes;
        functionObjectLibs ("libsampling.so");
        enabled         true;
        writeControl    timeStep;
        writeInterval   10;
        fields ( U T p );
        probeLocations
        (
            (3.286757 -7.379607 2.000000)
            (4.953423 -7.379607 3.000000)
        );
    }

    sample_near_canyonHVAC-Zona_3-Ar_Condicionado_6
    {
        type            probes;
        functionObjectLibs ("libsampling.so");
        enabled         true;
        writeControl    timeStep;
        writeInterval   10;
        fields ( U T p );
        probeLocations
        (
            (4.287971 3.440393 6.076653)
            (3.954638 3.540393 6.076653)
            (4.641305 3.440393 6.296653)
            (4.641305 3.540393 6.196653)
            (3.954638 3.440393 6.416654)
            (4.287971 3.540393 6.416654)
            (3.601305 3.440393 6.196653)
            (3.601305 3.540393 6.296653)
            (4.287971 3.320393 6.196653)
            (3.954638 3.320393 6.296653)
        );
    }

    sample_near_canyonHVAC-Zona_5-fachada_0
    {
        type            probes;
        functionObjectLibs ("libsampling.so");
        enabled         true;
        writeControl    timeStep;
        writeInterval   10;
        fields ( U T p );
        probeLocations
        (
            (3.286757 8.660394 12.000000)
            (4.953423 8.660394 11.000000)
        );
    }

    sample_near_canyonHVAC-Zona_9-Ar_Condicionado_6
    {
        type            probes;
        functionObjectLibs ("libsampling.so");
        enabled         true;
        writeControl    timeStep;
        writeInterval   10;
        fields ( U T p );
        probeLocations
        (
            (3.949137 -2.159607 12.090676)
            (4.282471 -2.259607 12.090676)
            (3.595804 -2.159607 12.310677)
            (3.595804 -2.259607 12.210677)
            (4.282471 -2.159607 12.430678)
            (3.949137 -2.259607 12.430678)
            (4.635804 -2.159607 12.210677)
            (4.635804 -2.259607 12.310677)
            (3.949137 -2.039607 12.210677)
            (4.282471 -2.039607 12.310677)
        );
    }

    sample_near_canyonHVAC-Zona_2-fachada_0
    {
        type            probes;
        functionObjectLibs ("libsampling.so");
        enabled         true;
        writeControl    timeStep;
        writeInterval   10;
        fields ( U T p );
        probeLocations
        (
            (3.286757 8.660394 3.000000)
            (4.953423 8.660394 2.000000)
        );
    }

    sample_near_canyonHVAC-Zona_3-fachada_2
    {
        type            probes;
        functionObjectLibs ("libsampling.so");
        enabled         true;
        writeControl    timeStep;
        writeInterval   10;
        fields ( U T p );
        probeLocations
        (
            (3.286757 3.620393 5.000000)
            (4.953423 3.620393 6.000000)
        );
    }

    sample_near_canyonHVAC-Zona_10-fachada_5
    {
        type            probes;
        functionObjectLibs ("libsampling.so");
        enabled         true;
        writeControl    timeStep;
        writeInterval   10;
        fields ( U T p );
        probeLocations
        (
            (-3.379893 8.660394 12.000000)
            (-1.713227 8.660394 6.000000)
            (-6.713210 8.660394 8.000000)
            (-3.379893 8.660394 3.000000)
            (-0.046577 8.660394 2.000000)
            (-0.046577 8.660394 4.000000)
            (-11.713193 8.660394 5.000000)
        );
    }

    sample_near_canyonHVAC-Zona_11-fachada_6
    {
        type            probes;
        functionObjectLibs ("libsampling.so");
        enabled         true;
        writeControl    timeStep;
        writeInterval   10;
        fields ( U T p );
        probeLocations
        (
            (-13.358761 -5.692940 5.000000)
            (-13.358761 -4.026274 9.000000)
        );
    }

    sample_near_canyonHVAC-Zona_3-fachada_0
    {
        type            probes;
        functionObjectLibs ("libsampling.so");
        enabled         true;
        writeControl    timeStep;
        writeInterval   10;
        fields ( U T p );
        probeLocations
        (
            (3.286757 8.660394 6.000000)
            (4.953423 8.660394 5.000000)
        );
    }

    sample_near_canyonHVAC-Zona_9-fachada_3
    {
        type            probes;
        functionObjectLibs ("libsampling.so");
        enabled         true;
        writeControl    timeStep;
        writeInterval   10;
        fields ( U T p );
        probeLocations
        (
            (3.286757 -2.339607 12.000000)
            (4.953423 -2.339607 11.000000)
        );
    }

    sample_near_canyonHVAC-Zona_11-cobertura_7
    {
        type            probes;
        functionObjectLibs ("libsampling.so");
        enabled         true;
        writeControl    timeStep;
        writeInterval   10;
        fields ( U T p );
        probeLocations
        (
            (-8.352477 -5.692940 13.020000)
            (-3.366193 -4.026274 13.020000)
        );
    }

    sample_near_canyonHVAC-Zona_6-Ar_Condicionado_6
    {
        type            probes;
        functionObjectLibs ("libsampling.so");
        enabled         true;
        writeControl    timeStep;
        writeInterval   10;
        fields ( U T p );
        probeLocations
        (
            (3.950146 -2.159607 3.076188)
            (4.283480 -2.259607 3.076188)
            (3.596813 -2.159607 3.296188)
            (3.596813 -2.259607 3.196188)
            (4.283480 -2.159607 3.416188)
            (3.950146 -2.259607 3.416188)
            (4.636813 -2.159607 3.196188)
            (4.636813 -2.259607 3.296188)
            (3.950146 -2.039607 3.196188)
            (4.283480 -2.039607 3.296188)
        );
    }

    sample_near_canyonHVAC-Zona_6-fachada_3
    {
        type            probes;
        functionObjectLibs ("libsampling.so");
        enabled         true;
        writeControl    timeStep;
        writeInterval   10;
        fields ( U T p );
        probeLocations
        (
            (3.286757 -2.339607 3.000000)
            (4.953423 -2.339607 2.000000)
        );
    }

    sample_near_canyonHVAC-Zona_10-fachada_0
    {
        type            probes;
        functionObjectLibs ("libsampling.so");
        enabled         true;
        writeControl    timeStep;
        writeInterval   10;
        fields ( U T p );
        probeLocations
        (
            (-3.379893 3.620393 2.000000)
            (-3.379893 3.620393 4.000000)
            (-3.379893 3.620393 10.000000)
            (-8.379876 3.620393 7.000000)
            (-3.379893 3.620393 12.000000)
        );
    }

    sample_near_canyonHVAC-Zona_8-Ar_Condicionado_6
    {
        type            probes;
        functionObjectLibs ("libsampling.so");
        enabled         true;
        writeControl    timeStep;
        writeInterval   10;
        fields ( U T p );
        probeLocations
        (
            (3.957520 -2.159607 9.078033)
            (4.290853 -2.259607 9.078033)
            (3.604186 -2.159607 9.298034)
            (3.604186 -2.259607 9.198033)
            (4.290853 -2.159607 9.418035)
            (3.957520 -2.259607 9.418035)
            (4.644186 -2.159607 9.198033)
            (4.644186 -2.259607 9.298034)
            (3.957520 -2.039607 9.198033)
            (4.290853 -2.039607 9.298034)
        );
    }

    sample_near_canyonHVAC-Zona_5-Ar_Condicionado_6
    {
        type            probes;
        functionObjectLibs ("libsampling.so");
        enabled         true;
        writeControl    timeStep;
        writeInterval   10;
        fields ( U T p );
        probeLocations
        (
            (4.290160 3.440393 12.080497)
            (3.956826 3.540393 12.080497)
            (4.643493 3.440393 12.300496)
            (4.643493 3.540393 12.200496)
            (3.956826 3.440393 12.420495)
            (4.290160 3.540393 12.420495)
            (3.603493 3.440393 12.200496)
            (3.603493 3.540393 12.300496)
            (4.290160 3.320393 12.200496)
            (3.956826 3.320393 12.300496)
        );
    }

    sample_near_canyonHVAC-Zona_8-fachada_1
    {
        type            probes;
        functionObjectLibs ("libsampling.so");
        enabled         true;
        writeControl    timeStep;
        writeInterval   10;
        fields ( U T p );
        probeLocations
        (
            (3.286757 -7.379607 8.000000)
            (4.953423 -7.379607 9.000000)
        );
    }

    sample_near_canyonHVAC-Zona_7-Ar_Condicionado_6
    {
        type            probes;
        functionObjectLibs ("libsampling.so");
        enabled         true;
        writeControl    timeStep;
        writeInterval   10;
        fields ( U T p );
        probeLocations
        (
            (3.950066 -2.159607 6.083961)
            (4.283400 -2.259607 6.083961)
            (3.596733 -2.159607 6.303961)
            (3.596733 -2.259607 6.203961)
            (4.283400 -2.159607 6.423961)
            (3.950066 -2.259607 6.423961)
            (4.636733 -2.159607 6.203961)
            (4.636733 -2.259607 6.303961)
            (3.950066 -2.039607 6.203961)
            (4.283400 -2.039607 6.303961)
        );
    }

    sample_near_canyonHVAC-Zona_13-fachada_2
    {
        type            probes;
        functionObjectLibs ("libsampling.so");
        enabled         true;
        writeControl    timeStep;
        writeInterval   10;
        fields ( U T p );
        probeLocations
        (
            (11.632907 -2.339607 12.000000)
            (11.632907 -2.339607 10.000000)
            (11.632907 -2.339607 4.000000)
            (11.632907 -2.339607 2.000000)
            (16.645723 -2.339607 7.000000)
        );
    }

    sample_near_canyonHVAC-Zona_12-fachada_0
    {
        type            probes;
        functionObjectLibs ("libsampling.so");
        enabled         true;
        writeControl    timeStep;
        writeInterval   10;
        fields ( U T p );
        probeLocations
        (
            (11.620107 3.620393 2.000000)
            (11.620107 3.620393 4.000000)
            (11.620107 3.620393 10.000000)
            (11.620107 3.620393 12.000000)
            (16.620123 3.620393 7.000000)
        );
    }

    sample_near_canyonHVAC-Zona_7-fachada_3
    {
        type            probes;
        functionObjectLibs ("libsampling.so");
        enabled         true;
        writeControl    timeStep;
        writeInterval   10;
        fields ( U T p );
        probeLocations
        (
            (3.286757 -2.339607 6.000000)
            (4.953423 -2.339607 5.000000)
        );
    }

    sample_near_canyonHVAC-Zona_4-fachada_2
    {
        type            probes;
        functionObjectLibs ("libsampling.so");
        enabled         true;
        writeControl    timeStep;
        writeInterval   10;
        fields ( U T p );
        probeLocations
        (
            (3.286757 3.620393 8.000000)
            (4.953423 3.620393 9.000000)
        );
    }

    sample_near_canyonHVAC-Zona_10-fachada_6
    {
        type            probes;
        functionObjectLibs ("libsampling.so");
        enabled         true;
        writeControl    timeStep;
        writeInterval   10;
        fields ( U T p );
        probeLocations
        (
            (-13.399860 5.307060 5.000000)
            (-13.399860 6.973727 9.000000)
        );
    }

    sample_near_canyonHVAC-Zona_7-fachada_1
    {
        type            probes;
        functionObjectLibs ("libsampling.so");
        enabled         true;
        writeControl    timeStep;
        writeInterval   10;
        fields ( U T p );
        probeLocations
        (
            (3.286757 -7.379607 5.000000)
            (4.953423 -7.379607 6.000000)
        );
    }

    sample_near_canyonHVAC-Zona_12-fachada_1
    {
        type            probes;
        functionObjectLibs ("libsampling.so");
        enabled         true;
        writeControl    timeStep;
        writeInterval   10;
        fields ( U T p );
        probeLocations
        (
            (21.640141 5.307060 9.000000)
            (21.640141 6.973727 5.000000)
        );
    }

    sample_near_canyonHVAC-Zona_4-fachada_0
    {
        type            probes;
        functionObjectLibs ("libsampling.so");
        enabled         true;
        writeControl    timeStep;
        writeInterval   10;
        fields ( U T p );
        probeLocations
        (
            (3.286757 8.660394 9.000000)
            (4.953423 8.660394 8.000000)
        );
    }

    sample_near_canyonHVAC-Zona_12-cobertura_7
    {
        type            probes;
        functionObjectLibs ("libsampling.so");
        enabled         true;
        writeControl    timeStep;
        writeInterval   10;
        fields ( U T p );
        probeLocations
        (
            (11.620107 5.307060 13.020000)
            (16.620123 6.973727 13.020000)
        );
    }

    sample_near_canyonHVAC-Zona_2-fachada_2
    {
        type            probes;
        functionObjectLibs ("libsampling.so");
        enabled         true;
        writeControl    timeStep;
        writeInterval   10;
        fields ( U T p );
        probeLocations
        (
            (3.286757 3.620393 2.000000)
            (4.953423 3.620393 3.000000)
        );
    }

    sample_near_canyonHVAC-Zona_11-fachada_5
    {
        type            probes;
        functionObjectLibs ("libsampling.so");
        enabled         true;
        writeControl    timeStep;
        writeInterval   10;
        fields ( U T p );
        probeLocations
        (
            (-3.366193 -2.339607 12.000000)
            (-3.366194 -2.339607 10.000000)
            (-3.366194 -2.339607 4.000000)
            (-8.352477 -2.339607 7.000000)
            (-3.366193 -2.339607 2.000000)
        );
    }

    sample_near_canyonHVAC-Zona_5-fachada_2
    {
        type            probes;
        functionObjectLibs ("libsampling.so");
        enabled         true;
        writeControl    timeStep;
        writeInterval   10;
        fields ( U T p );
        probeLocations
        (
            (3.286757 3.620393 11.000000)
            (4.953423 3.620393 12.000000)
        );
    }

htc_surfaces
{
    type        wallHeatTransferCoeff;
    libs        ("libfieldFunctionObjects.so");
    model       kappaEff;
    patches     (
						"canyonHVAC-Zona_4-Ar_Condicionado_6"
						"canyonHVAC-Zona_9-cobertura_4"
						"canyonHVAC-Zona_13-cobertura_7"
						"canyonHVAC-Zona_5-cobertura_4"
						"canyonHVAC-Zona_13-fachada_1"
						"canyonHVAC-Zona_2-Ar_Condicionado_6"
						"canyonHVAC-Zona_12-fachada_2"
						"canyonHVAC-Zona_10-cobertura_7"
						"canyonHVAC-Zona_11-fachada_0"
						"canyonHVAC-Zona_13-fachada_0"
						"canyonHVAC-Zona_8-fachada_3"
						"canyonHVAC-Zona_9-fachada_1"
						"canyonHVAC-Zona_6-fachada_1"
						"canyonHVAC-Zona_3-Ar_Condicionado_6"
						"canyonHVAC-Zona_5-fachada_0"
						"canyonHVAC-Zona_9-Ar_Condicionado_6"
						"canyonHVAC-Zona_2-fachada_0"
						"canyonHVAC-Zona_3-fachada_2"
						"canyonHVAC-Zona_10-fachada_5"
						"canyonHVAC-Zona_11-fachada_6"
						"canyonHVAC-Zona_3-fachada_0"
						"canyonHVAC-Zona_9-fachada_3"
						"canyonHVAC-Zona_11-cobertura_7"
						"canyonHVAC-Zona_6-Ar_Condicionado_6"
						"canyonHVAC-Zona_6-fachada_3"
						"canyonHVAC-Zona_10-fachada_0"
						"canyonHVAC-Zona_8-Ar_Condicionado_6"
						"canyonHVAC-Zona_5-Ar_Condicionado_6"
						"canyonHVAC-Zona_8-fachada_1"
						"canyonHVAC-Zona_7-Ar_Condicionado_6"
						"canyonHVAC-Zona_13-fachada_2"
						"canyonHVAC-Zona_12-fachada_0"
						"canyonHVAC-Zona_7-fachada_3"
						"canyonHVAC-Zona_4-fachada_2"
						"canyonHVAC-Zona_10-fachada_6"
						"canyonHVAC-Zona_7-fachada_1"
						"canyonHVAC-Zona_12-fachada_1"
						"canyonHVAC-Zona_4-fachada_0"
						"canyonHVAC-Zona_12-cobertura_7"
						"canyonHVAC-Zona_2-fachada_2"
						"canyonHVAC-Zona_11-fachada_5"
						"canyonHVAC-Zona_5-fachada_2"
    );
    rho         1.225;
    Cp          1005;
    Pr          0.707;
    Prt         0.9;  // <-- Reduced from 0.9 to 0.09 to multiply h by 10
    Lchar       0.05; // <-- Rduced Lchar
    writeControl timeStep;
    writeInterval   10;
}

pressure_coeff
{
    type            pressure;
    functionObjectLibs ("libfieldFunctionObjects.so");
    log             yes;
    writeControl    timeStep;
    writeInterval   10;
    enabled         yes;
    calcTotal       no;
    calcCoeff       yes;
    pRef            0;
    rhoInf          1.125;
    pInf            0;
    UInf            (3 2 1.5);
}

